<?xml version="1.0" encoding="UTF-8"?>

<!-- generated on 2022-07-04 16:22:28 by Eclipse SUMO netedit Version 1.12.0
-->

<routes xmlns:xsi="http://www.w3.org/2001/XMLSchema-instance" xsi:noNamespaceSchemaLocation="http://sumo.dlr.de/xsd/routes_file.xsd">
    <route id="r_1" edges="E0 E1"/>
    <route id="r_10" edges="-E3 E1"/>
    <route id="r_11" edges="-E3 -E0"/>
    <route id="r_2" edges="E0 E2"/>
    <route id="r_3" edges="E0 E3"/>
    <route id="r_4" edges="-E1 -E0"/>
    <route id="r_5" edges="-E1 E2"/>
    <route id="r_6" edges="-E1 E3"/>
    <route id="r_7" edges="-E2 -E0"/>
    <route id="r_8" edges="-E2 E1"/>
    <route id="r_9" edges="-E2 E3"/>
    <!-- <vehicle id="v_0" depart="2000" route="r_2"/> -->
    <!-- <vehicle id="v_1" depart="2000" route="r_8"/> -->
    <!-- <vehicle id="v_2" depart="2000" route="r_6"/> -->
    <!-- <vehicle id="v_3" depart="2000" route="r_11"/> -->
    <!-- <vehicle id="v_4" depart="2000" route="r_7"/> -->
    <!-- <vehicle id="v_5" depart="2000" route="r_8"/> -->

    <vType accel="3.0" decel="6.0" id="CarA-h" length="5.0" minGap="2.5" maxSpeed="50.0" sigma="0.5" />
    <vType accel="2.0" decel="6.0" id="CarB-m" length="5.0" minGap="2.5" maxSpeed="40.0" sigma="0.5" />
    <vType accel="1.0" decel="5.0" id="CarC-l" length="5.0" minGap="2.5" maxSpeed="30.0" sigma="0.5" />
    <vType accel="5.0" decel="5.0" id="CarD-xh" length="7.5" minGap="2.5" maxSpeed="70.0" sigma="0.7" />

    <vehicle  id="veh0" route="r_1" type="CarA-h" depart="10" color="1,0,0" />
    <vehicle  id="veh1" route="r_10" depart="10" type="CarA-h" color="1,0,0" />
    <vehicle  id="veh2" route="r_11" depart="10" type="CarA-h" color="1,0,0" />
    <vehicle  id="veh3" route="r_2" depart="10" type="CarA-h" color="1,0,0"/>
    <vehicle  id="veh4" route="r_3" depart="10" type="CarA-h" color="1,0,0" />
    <vehicle  id="veh5" route="r_4" depart="10" type="CarA-h" color="1,0,0"/>
    <vehicle  id="veh6" route="r_5" depart="10" type="CarA-h" color="1,0,0" />
    <vehicle  id="veh7" route="r_6" depart="10" type="CarA-h" color="1,0,0"/>
    <vehicle  id="veh8" route="r_7" depart="10" type="CarA-h" color="1,0,0"/>
    <vehicle  id="veh9" route="r_8" depart="10" type="CarA-h" color="1,0,0" />
    <vehicle  id="veh10" route="r_9" depart="10" type="CarA-h" color="1,0,0" />
    <vehicle  id="veh11" route="r_7" depart="10" type="CarA-h" color="1,0,0" />
    <vehicle  id="veh12" route="r_6" depart="10" type="CarB-m"   />
    <vehicle  id="veh13" route="r_3" depart="10" type="CarB-m" />
    <vehicle  id="veh14" route="r_4" depart="10" type="CarB-m" />
    <vehicle  id="veh15" route="r_4" depart="10" type="CarB-m" />
    <vehicle  id="veh16" route="r_1" depart="10" type="CarB-m" />
    <vehicle  id="veh17" route="r_2" depart="10" type="CarB-m" />
    <vehicle  id="veh18" route="r_7" depart="10" type="CarC-l" color="0,0,1" />
    <vehicle  id="veh19" route="r_8" depart="10" type="CarC-l" color="0,0,1" />
    <vehicle  id="veh20" route="r_7" depart="20" type="CarD-xh" color="0,1,0" />

</routes>
